[OPTIONS]
Accuracy 0.001
Diffusivity 1
Emitter Exponent 0.5
Headloss D-W
Pattern 1
Specific Grafity 1
Tolerance 0.01
Unbalanced CONTINUE 10
Units LPS
Viscosity 1

[TIMES]
Duration 2:00
Hydraulic Timestep 0:05
Pattern Start 0:00
Pattern Timestep 0:00
Quality Timestep 0:05
Report Start 1:00
Report Timestep 0:05
Start ClockTime 12 am
Statistic NONE

[REPORT]
Messages No
Page 0
Status No
Summary No

[JUNCTIONS]
1 897.5 0.25
10 897.5 0.2
100 898.5 0
101 922.5 0
102 903.5 0.2
103 893.5 0.5
104 930.5 0.05
105 930.5 0.05
106 930.5 0.05
107 896.5 0.6
108 896.5 0.65
109 905.5 0.3
11 954.5 0.3
110 908.5 0.65
111 895.5 0
112 915.5 0.05
113 918.5 0.05
114 892.5 0.3
115 901.5 0.05
116 914.5 0.15
117 934.5 0.15
118 920.5 0.05
119 932.5 0.2
12 915.5 0.05
120 893.5 1.75
121 892.5 0.3
122 893.5 0
123 934.5 0.05
124 923.5 0
125 922.5 0
126 892.5 0.15
127 951.5 0.85
128 892.5 0.6
129 892.5 0.45
13 895.5 0.05
130 891.5 1.3
131 916.5 0.8
132 893.5 0.4
133 894.5 0
134 895.5 0.05
135 923.5 0.05
136 911.5 0.5
137 899.5 0
138 894.5 0.2
139 964.5 0.2
14 894.5 0
140 895.5 0.1
141 895.5 0.1
142 894.5 0.3
143 944.5 0
144 892.5 0.8
145 906.5 0.2
146 922.5 0.1
147 918.5 0.25
148 922.5 0
149 934.5 0.2
15 922.5 0.05
150 958.5 0.15
151 944.5 0.15
152 912.5 0.2
153 906.5 0.2
154 893.5 0.2
155 944.5 0.35
156 894.5 0.25
157 894.5 0
158 892.5 0.25
159 918.5 0
16 919.5 0
160 893.5 0.65
161 944.5 0
162 891.5 0.05
163 894.5 0.15
164 928.5 0.15
165 903.5 0.15
166 905.5 0.3
167 905.5 0.2
168 896.5 0
169 923.5 0.05
17 893.5 0
170 893.5 0.85
171 903.5 0.1
172 899.5 0.5
173 897.5 0
174 892.5 0.4
175 903.5 0.55
176 894.5 0.2
177 934.5 0.1
178 895.5 0
179 918.5 0
18 903.5 0.15
180 899.5 0.1
181 898.5 0.05
182 918.5 0
183 899.5 0.15
184 893.5 0.05
185 897.5 0.35
186 911.5 0.15
187 927.5 0.7
188 916.5 0.25
189 898.5 0.05
19 893.5 0
190 895.5 0.05
191 904.5 0
192 926.5 0.25
193 893.5 0.15
194 892.5 0.15
195 893.5 0.05
196 958.5 0.05
197 896.5 0.1
198 897.5 0.7
199 893.5 0.45
2 898.5 0.35
20 893.5 0.5
200 898.5 0
201 960.5 0.05
202 910.5 0.1
203 895.5 0.05
204 905.5 0.15
205 908.5 1
206 937.5 0
207 894.5 0.25
208 918.5 0.75
209 934.5 0.1
21 892.5 0.25
210 891.5 0.35
211 901.5 0.25
212 922.5 0.1
213 918.5 0.5
214 922.5 0.05
215 892.5 0.45
216 893.5 0
217 928.5 0.15
218 901.5 0
219 895.5 0.15
22 921.5 0
220 918.5 0
221 900.5 0.1
222 898.5 0.1
223 919.5 0.1
224 903.5 0.15
225 922.5 0.15
226 893.5 0.25
227 909.5 0.25
228 919.5 0
229 918.5 0
23 932.5 0.3
230 918.5 0
231 894.5 0.7
232 936.5 0.25
233 923.5 0
234 918.5 0
235 893.5 0.2
236 898.5 0.05
237 926.5 0
238 918.5 0.05
239 898.5 0.2
24 960.5 0.1
240 915.5 0.7
241 892.5 0.15
242 922.5 0.15
243 919.5 0.05
244 893.5 0.55
245 928.5 0.8
246 936.5 0.55
247 895.5 0.05
248 937.5 0
249 957.5 0.85
25 934.5 0.35
250 893.5 0.2
251 897.5 0.1
252 934.5 0.05
253 910.5 0.2
254 910.5 0.05
255 923.5 0.05
256 919.5 0.15
257 894.5 0.1
258 923.5 0
259 893.5 0
26 903.5 0
260 922.5 0
261 894.5 0.7
262 921.5 0.05
263 936.5 0.05
264 936.5 0
265 893.5 0
266 898.5 0
267 896.5 0.2
268 893.5 0.05
269 892.5 0
27 908.5 0.1
270 892.5 0
271 923.5 0
272 894.5 0.9
273 893.5 0
274 893.5 0.05
275 893.5 0.25
276 939.5 0.35
277 893.5 0
278 947.5 0.15
279 934.5 0.1
28 901.5 0.1
280 893.5 0.05
281 892.5 0.1
282 901.5 0.1
283 918.5 0.6
284 920.5 0.5
285 892.5 0.15
286 911.5 0.35
287 934.5 0.1
288 908.5 0.2
289 923.5 0.1
29 960.5 0.1
290 910.5 0.6
291 916.5 0.35
292 893.5 0.05
293 894.5 0
294 910.5 0
295 934.5 0.25
296 922.5 0.15
297 895.5 0.2
298 897.5 0.1
299 895.5 0.2
3 897.5 0.1
30 927.5 0.15
300 892.5 0.3
301 895.5 0.05
302 898.5 0.05
303 898.5 0.05
304 893.5 0.2
305 911.5 0.35
306 918.5 0.05
307 922.5 0
308 906.5 0.05
309 944.5 0.05
31 893.5 0.1
310 896.5 0.3
311 925.5 0.05
312 943.5 0
313 943.5 0.1
314 923.5 0.05
315 904.5 0.15
316 904.5 0.55
317 934.5 0.1
318 921.5 0
319 937.5 0
32 905.5 0.1
320 912.5 0.3
321 919.5 0
322 903.5 0.05
323 894.5 0.3
324 926.5 0.2
325 899.5 0
326 930.5 0.05
327 894.5 0.15
328 894.5 0.4
329 894.5 0
33 905.5 0.05
330 911.5 0.6
331 893.5 0.05
332 910.5 0.15
333 895.5 0.1
334 893.5 0
335 920.5 0.1
336 923.5 0
337 921.5 0.35
338 918.5 0.1
339 929.5 0.2
34 899.5 0.25
340 899.5 0.3
341 922.5 0.1
342 934.5 0
343 893.5 0.2
344 893.5 0.1
345 899.5 0.1
346 943.5 0.05
347 923.5 0.45
348 894.5 0.15
349 909.5 0.6
35 899.5 0.35
350 910.5 0.1
351 911.5 0.25
352 919.5 0
353 944.5 0.1
354 918.5 0
355 934.5 0.05
356 921.5 0
357 950.5 0.7
358 893.5 0.2
359 922.5 0.15
36 934.5 0
360 922.5 0
361 914.5 0.15
362 910.5 0.15
363 914.5 0
364 892.5 0
365 893.5 0.1
366 906.5 0.3
367 947.5 0.2
368 899.5 0.1
369 894.5 0.25
37 944.5 0
370 908.5 0.15
371 939.5 0.05
372 906.5 0.3
373 921.5 0.05
374 926.5 0.55
375 905.5 0.2
376 893.5 0.6
377 934.5 0.15
378 916.5 0.05
379 911.5 0.1
38 943.5 0.25
380 894.5 0
381 894.5 0
382 920.5 0.1
383 892.5 0.05
384 899.5 0.1
385 911.5 0.65
386 968.5 1.45
387 916.5 0.2
388 914.5 0
389 919.5 0
39 896.5 0.1
390 893.5 0
391 894.5 0.1
392 898.5 0.3
393 939.5 0.05
394 907.5 1.5
395 909.5 0.1
396 919.5 0.1
397 896.5 0.05
398 923.5 0.15
399 894.5 0.4
4 930.5 0.2
40 939.5 0
400 894.5 0
401 894.5 0
402 918.5 0.35
403 894.5 0.05
404 934.5 0
405 898.5 0.8
406 897.5 0.1
407 923.5 0.05
408 897.5 0.1
409 895.5 0.15
41 897.5 0.65
410 921.5 0.4
411 895.5 0.1
412 899.5 0.45
413 893.5 0.05
414 913.5 0.25
415 905.5 0.4
416 897.5 0
417 923.5 0.05
418 923.5 0
419 921.5 0.2
42 901.5 0
420 922.5 0.2
421 910.5 0.1
422 910.5 0.35
423 911.5 0.2
424 910.5 0.35
425 947.5 0
426 934.5 0.25
427 910.5 0.15
428 922.5 0
429 910.5 0.05
43 947.5 0.1
430 934.5 0.25
431 893.5 0.15
432 918.5 0.1
433 944.5 0.15
434 954.5 0.15
435 900.5 0.05
436 922.5 0
437 911.5 0.3
438 934.5 0.05
439 915.5 0
44 923.5 0
440 909.5 0.1
441 910.5 0.45
442 934.5 0.35
443 944.5 0
444 934.5 0.2
445 923.5 0
446 922.5 0
447 944.5 0.05
448 911.5 0.45
449 919.5 0.15
45 894.5 0.05
450 915.5 0.35
451 892.5 0.45
452 916.5 0.05
453 916.5 0.1
454 905.5 0.45
455 918.5 0.05
456 896.5 0.3
457 934.5 0.05
458 921.5 0
459 894.5 0
46 891.5 0.05
460 932.5 0.45
461 910.5 0.25
462 895.5 0.05
463 901.5 0.25
464 923.5 0.1
465 903.5 0.6
466 948.5 0.2
467 891.5 0.05
468 892.5 0.25
469 923.5 0.1
47 939.5 0.15
470 910.5 0.1
471 910.5 0.7
472 896.5 0.05
473 892.5 0.15
474 923.5 0
475 923.5 0
476 940.5 0.1
477 893.5 0.1
478 926.5 0.6
479 934.5 0.1
48 894.5 0
480 913.5 0.45
481 908.5 0.15
482 923.5 0
483 919.5 0.05
484 898.5 0
485 894.5 0.2
486 892.5 0
487 917.5 0.2
488 894.5 0.4
489 893.5 0.1
49 899.5 0.75
490 891.5 0.65
491 909.5 0.25
492 910.5 0.1
493 914.5 0.2
494 909.5 0.5
495 896.5 0.15
496 937.5 0.1
497 892.5 0.05
498 954.5 0.45
499 892.5 0.5
5 917.5 0.35
50 905.5 0
500 896.5 0.1
501 921.5 0.05
502 915.5 0
503 892.5 0.05
504 915.5 0.3
505 944.5 0.05
506 944.5 0
507 939.5 0.05
508 939.5 0.05
509 892.5 0.05
51 898.5 0
510 892.5 0
511 923.5 0.25
512 921.5 0.3
513 893.5 0.35
514 892.5 0.25
515 933.5 0.1
516 893.5 0.15
517 944.5 0
518 894.5 0.2
519 910.5 0
52 895.5 0.2
520 893.5 0.15
521 895.5 0.4
522 893.5 0.1
523 944.5 0.1
524 934.5 0
525 918.5 0.55
526 944.5 0.1
527 948.5 0.15
528 939.5 0
529 893.5 0
53 893.5 0.25
530 932.5 0.6
531 897.5 0.25
532 918.5 0
533 926.5 0.3
54 898.5 0
55 898.5 0.05
56 944.5 0.25
57 927.5 0.35
58 960.5 0.55
59 929.5 0.25
6 901.5 0.25
60 892.5 0
61 894.5 0.5
62 892.5 0.05
63 910.5 0.45
64 944.5 0.05
65 926.5 0.05
66 921.5 0
67 893.5 0.2
68 897.5 0.7
69 921.5 0.1
7 918.5 0
70 926.5 0.3
71 895.5 0.5
72 922.5 0.1
73 922.5 0
74 892.5 0.2
75 891.5 0.1
76 895.5 0.15
77 944.5 0.05
78 923.5 0
79 944.5 0.05
8 928.5 0.3
80 915.5 0
81 915.5 0.2
82 914.5 0.15
83 910.5 0
84 909.5 0.1
85 912.5 0.15
86 944.5 0.15
87 921.5 0.3
88 928.5 0.05
89 928.5 0.1
9 944.5 0.15
90 922.5 0
91 911.5 0.15
92 923.5 0.1
93 892.5 0.15
94 934.5 0.05
95 901.5 0.25
96 903.5 0.5
97 940.5 0.3
98 923.5 0
99 923.5 0.25

[RESERVOIRS]
534 1050

[TANKS]
TANK_1 900 8 4 9 10 2000

[PUMPS]

[PIPES]
1000 315 316 9.94 50 0.400 0.00 OPEN
1002 495 472 3.88 80 0.400 0.00 OPEN
1004 15 446 1.39 50 0.400 0.00 OPEN
1006 289 483 33.28 200 0.100 0.00 OPEN
1007 256 449 11.57 50 0.400 0.00 OPEN
1008 381 451 3.23 50 0.400 0.00 OPEN
1009 291 452 29.65 80 0.400 0.00 OPEN
1011 41 68 43.65 50 0.400 0.00 OPEN
1012 229 230 13.54 50 0.400 0.00 OPEN
1013 453 63 37.92 200 0.100 0.00 OPEN
1014 346 312 4.95 250 0.100 0.00 OPEN
1015 433 447 17.73 250 0.100 0.00 OPEN
1016 314 289 10.72 200 0.100 0.00 OPEN
1018 67 403 13.76 50 0.400 0.00 OPEN
1019 186 116 17.08 80 0.400 0.00 OPEN
1022 482 314 3.15 200 0.100 0.00 OPEN
1023 474 482 10.59 200 0.100 0.00 OPEN
1024 497 129 4.72 50 0.400 0.00 OPEN
1025 285 194 16.47 200 0.100 0.00 OPEN
1026 492 461 20.75 50 0.400 0.00 OPEN
1027 13 301 15.31 50 0.400 0.00 OPEN
1028 6 463 54.26 50 0.400 0.00 OPEN
1029 318 66 5.64 200 0.100 0.00 OPEN
1030 447 353 8.87 250 0.100 0.00 OPEN
1033 207 521 50.38 50 0.400 0.00 OPEN
1035 202 470 5.95 50 0.400 0.00 OPEN
1036 92 475 1.74 50 0.400 0.00 OPEN
1037 38 346 8.02 250 0.100 0.00 OPEN
1038 258 469 1.66 50 0.400 0.00 OPEN
1042 236 484 2.27 50 0.400 0.00 OPEN
1044 458 159 22.87 100 0.400 0.00 OPEN
1045 159 182 5.68 80 0.400 0.00 OPEN
1046 108 272 74.73 50 0.400 0.00 OPEN
1048 291 378 21.60 200 0.100 0.00 OPEN
1049 505 38 27.51 250 0.100 0.00 OPEN
1050 366 340 53.18 50 0.400 0.00 OPEN
1053 55 302 2.09 50 0.400 0.00 OPEN
1054 449 450 42.83 50 0.400 0.00 OPEN
1055 450 493 28.42 50 0.400 0.00 OPEN
1056 309 443 9.86 80 0.400 0.00 OPEN
1057 5 494 69.55 80 0.400 0.00 OPEN
1058 494 205 39.96 50 0.400 0.00 OPEN
1059 248 319 2.28 50 0.400 0.00 OPEN
1060 91 385 49.24 50 0.400 0.00 OPEN
1061 139 249 30.68 50 0.400 0.00 OPEN
1062 180 368 6.56 200 0.100 0.00 OPEN
1064 44 336 5.25 50 0.400 0.00 OPEN
1065 310 500 9.53 50 0.400 0.00 OPEN
1066 464 356 9.15 50 0.400 0.00 OPEN
1067 302 303 1.97 50 0.400 0.00 OPEN
1068 12 439 2.79 50 0.400 0.00 OPEN
1070 294 519 1.43 50 0.400 0.00 OPEN
1072 342 355 1.42 50 0.400 0.00 OPEN
1074 516 510 7.85 200 0.100 0.00 OPEN
1077 506 517 6.42 250 0.100 0.00 OPEN
1078 354 525 23.38 50 0.400 0.00 OPEN
1079 62 174 8.89 50 0.400 0.00 OPEN
1081 349 491 26.39 80 0.400 0.00 OPEN
1082 335 99 25.24 50 0.400 0.00 OPEN
1083 413 334 6.65 80 0.400 0.00 OPEN
1085 234 532 3.61 50 0.400 0.00 OPEN
1086_a 534 TANK_1 272.70 300 0.100 0.00 CV
1086_b TANK_1 386 272.70 300 0.100 0.00 CV
535 6 95 7.35 200 0.100 0.00 OPEN
536 19 162 21.74 50 0.400 0.00 OPEN
537 14 45 18.40 50 0.400 0.00 OPEN
539 4 57 73.88 50 0.400 0.00 OPEN
540 24 201 24.61 80 0.400 0.00 OPEN
542 487 5 23.51 80 0.400 0.00 OPEN
544 432 7 7.86 50 0.400 0.00 OPEN
545 11 434 12.61 80 0.400 0.00 OPEN
547 144 121 27.76 50 0.400 0.00 OPEN
548 54 392 4.35 50 0.400 0.00 OPEN
549 306 458 8.58 200 0.100 0.00 OPEN
550 112 12 1.91 50 0.400 0.00 OPEN
551 164 8 15.39 50 0.400 0.00 OPEN
552 326 438 14.06 50 0.400 0.00 OPEN
555 371 508 12.48 250 0.100 0.00 OPEN
556 321 220 4.72 200 0.100 0.00 OPEN
557 520 21 16.38 50 0.400 0.00 OPEN
558 127 201 78.16 50 0.400 0.00 OPEN
559 343 331 24.99 200 0.100 0.00 OPEN
560 169 314 14.97 50 0.400 0.00 OPEN
561 475 445 1.77 50 0.400 0.00 OPEN
563 277 17 3.64 80 0.400 0.00 OPEN
564 406 298 10.02 80 0.400 0.00 OPEN
565 133 134 2.57 50 0.400 0.00 OPEN
566 3 251 3.12 50 0.400 0.00 OPEN
567 340 35 21.24 50 0.400 0.00 OPEN
568 66 69 8.92 200 0.100 0.00 OPEN
569 404 295 8.81 80 0.400 0.00 OPEN
570 295 36 5.84 50 0.400 0.00 OPEN
571 76 178 6.94 50 0.400 0.00 OPEN
572 178 39 17.40 50 0.400 0.00 OPEN
573 463 412 16.94 50 0.400 0.00 OPEN
574 245 89 10.48 50 0.400 0.00 OPEN
575 345 221 19.98 200 0.100 0.00 OPEN
576 25 287 13.35 200 0.100 0.00 OPEN
577 287 476 33.93 250 0.100 0.00 OPEN
578 247 52 11.20 50 0.400 0.00 OPEN
579 100 55 2.84 50 0.400 0.00 OPEN
580 325 137 5.61 200 0.100 0.00 OPEN
581 87 70 43.51 50 0.400 0.00 OPEN
582 292 293 5.36 50 0.400 0.00 OPEN
583 222 200 3.45 80 0.400 0.00 OPEN
584 71 521 42.07 200 0.100 0.00 OPEN
586 266 100 2.82 50 0.400 0.00 OPEN
587 204 50 11.43 50 0.400 0.00 OPEN
589 469 374 32.61 50 0.400 0.00 OPEN
590 78 44 6.52 50 0.400 0.00 OPEN
591 215 499 65.36 50 0.400 0.00 OPEN
594 364 486 2.60 50 0.400 0.00 OPEN
595 502 112 1.93 50 0.400 0.00 OPEN
597 265 19 3.27 80 0.400 0.00 OPEN
598 278 276 31.56 50 0.400 0.00 OPEN
599 104 106 2.43 50 0.400 0.00 OPEN
600 172 180 13.08 200 0.100 0.00 OPEN
601 468 275 42.41 80 0.400 0.00 OPEN
604 443 151 7.58 80 0.400 0.00 OPEN
605 151 79 8.25 80 0.400 0.00 OPEN
606 7 352 31.29 50 0.400 0.00 OPEN
607 125 72 13.38 50 0.400 0.00 OPEN
608 467 75 12.46 50 0.400 0.00 OPEN
609 210 467 8.89 50 0.400 0.00 OPEN
610 307 148 6.88 50 0.400 0.00 OPEN
611 314 255 5.90 50 0.400 0.00 OPEN
613 233 271 7.71 50 0.400 0.00 OPEN
614 257 391 13.63 200 0.100 0.00 OPEN
615 26 102 21.13 80 0.400 0.00 OPEN
616 452 81 43.70 80 0.400 0.00 OPEN
619 82 83 51.51 50 0.400 0.00 OPEN
620 115 42 2.32 80 0.400 0.00 OPEN
621 79 77 5.07 80 0.400 0.00 OPEN
622 126 490 19.42 50 0.400 0.00 OPEN
624 280 259 7.50 80 0.400 0.00 OPEN
625 362 254 4.30 50 0.400 0.00 OPEN
627 101 90 7.83 50 0.400 0.00 OPEN
628 368 345 9.54 200 0.100 0.00 OPEN
629 415 175 40.50 50 0.400 0.00 OPEN
630 99 98 29.95 50 0.400 0.00 OPEN
631 53 160 58.21 50 0.400 0.00 OPEN
632 114 93 6.86 50 0.400 0.00 OPEN
633 244 128 32.36 50 0.400 0.00 OPEN
634 320 85 29.40 50 0.400 0.00 OPEN
635 204 109 27.42 50 0.400 0.00 OPEN
636 36 279 4.58 50 0.400 0.00 OPEN
638 440 286 16.51 50 0.400 0.00 OPEN
639 181 266 2.37 50 0.400 0.00 OPEN
641 159 118 24.34 80 0.400 0.00 OPEN
643 165 166 12.28 100 0.400 0.00 OPEN
644 359 436 5.46 80 0.400 0.00 OPEN
645 387 223 5.40 200 0.100 0.00 OPEN
646 462 333 2.00 50 0.400 0.00 OPEN
648 146 147 50.60 50 0.400 0.00 OPEN
649 532 502 9.68 50 0.400 0.00 OPEN
650 180 107 71.18 50 0.400 0.00 OPEN
652 394 172 59.04 200 0.100 0.00 OPEN
653 439 504 14.40 50 0.400 0.00 OPEN
654 166 167 29.83 100 0.400 0.00 OPEN
656 480 320 16.43 50 0.400 0.00 OPEN
657 97 232 39.83 50 0.400 0.00 OPEN
658 144 114 14.45 50 0.400 0.00 OPEN
662 225 242 9.15 80 0.400 0.00 OPEN
663 444 430 14.16 50 0.400 0.00 OPEN
664 440 395 4.11 200 0.100 0.00 OPEN
665 375 394 71.22 200 0.100 0.00 OPEN
666 95 1 37.40 80 0.400 0.00 OPEN
667 417 418 6.42 50 0.400 0.00 OPEN
668 162 126 23.71 50 0.400 0.00 OPEN
669 31 244 33.44 80 0.400 0.00 OPEN
671 155 309 20.24 80 0.400 0.00 OPEN
672 259 265 3.43 80 0.400 0.00 OPEN
673 459 133 2.48 50 0.400 0.00 OPEN
675 442 127 63.07 50 0.400 0.00 OPEN
676 150 386 41.40 300 0.100 0.00 OPEN
677 514 343 45.58 200 0.100 0.00 OPEN
678 168 397 3.68 80 0.400 0.00 OPEN
680 161 143 1.73 50 0.400 0.00 OPEN
681 243 228 7.92 200 0.100 0.00 OPEN
683 148 146 3.97 50 0.400 0.00 OPEN
685 9 155 4.61 80 0.400 0.00 OPEN
686 281 473 3.09 200 0.100 0.00 OPEN
687 351 379 14.15 50 0.400 0.00 OPEN
688 441 427 22.69 100 0.400 0.00 OPEN
689 196 150 20.86 300 0.100 0.00 OPEN
690 336 474 4.71 50 0.400 0.00 OPEN
691 213 458 59.59 50 0.400 0.00 OPEN
692 429 294 1.48 50 0.400 0.00 OPEN
693 434 9 11.39 80 0.400 0.00 OPEN
694 102 18 22.73 80 0.400 0.00 OPEN
695 32 33 10.17 50 0.400 0.00 OPEN
696 379 330 17.46 50 0.400 0.00 OPEN
697 416 173 2.61 50 0.400 0.00 OPEN
698 86 425 43.67 50 0.400 0.00 OPEN
702 89 88 5.76 50 0.400 0.00 OPEN
704 183 170 61.96 50 0.400 0.00 OPEN
707 485 61 33.29 200 0.100 0.00 OPEN
708 486 62 2.91 50 0.400 0.00 OPEN
709 30 217 6.92 50 0.400 0.00 OPEN
710 223 243 4.26 200 0.100 0.00 OPEN
713 57 30 28.67 50 0.400 0.00 OPEN
714 390 184 2.43 80 0.400 0.00 OPEN
717 282 322 7.03 50 0.400 0.00 OPEN
718 197 198 26.56 50 0.400 0.00 OPEN
719 28 282 25.93 50 0.400 0.00 OPEN
722 173 3 2.89 50 0.400 0.00 OPEN
723 40 507 10.81 250 0.100 0.00 OPEN
724 329 156 13.39 50 0.400 0.00 OPEN
725 50 32 9.07 50 0.400 0.00 OPEN
728 105 104 2.32 50 0.400 0.00 OPEN
729 195 390 2.01 80 0.400 0.00 OPEN
730 84 481 42.95 50 0.400 0.00 OPEN
731 251 408 2.83 50 0.400 0.00 OPEN
732 188 387 15.19 200 0.100 0.00 OPEN
733 93 497 6.30 50 0.400 0.00 OPEN
734 29 196 25.27 300 0.100 0.00 OPEN
735 279 97 7.95 50 0.400 0.00 OPEN
737 51 189 1.75 80 0.400 0.00 OPEN
738 134 190 2.48 50 0.400 0.00 OPEN
739 217 164 10.49 50 0.400 0.00 OPEN
740 171 165 13.06 100 0.400 0.00 OPEN
741 370 191 24.39 50 0.400 0.00 OPEN
742 226 195 2.25 80 0.400 0.00 OPEN
743 142 199 55.93 50 0.400 0.00 OPEN
744 367 58 59.41 300 0.100 0.00 OPEN
745 19 277 3.61 80 0.400 0.00 OPEN
746 20 120 29.36 80 0.400 0.00 OPEN
748 500 197 5.55 50 0.400 0.00 OPEN
749 373 436 9.73 50 0.400 0.00 OPEN
750 183 49 7.09 50 0.400 0.00 OPEN
752 185 34 65.94 50 0.400 0.00 OPEN
754 235 226 2.92 80 0.400 0.00 OPEN
756 80 202 27.57 50 0.400 0.00 OPEN
757 211 222 29.13 80 0.400 0.00 OPEN
758 527 40 13.88 250 0.100 0.00 OPEN
759 190 203 2.77 50 0.400 0.00 OPEN
760 132 235 57.60 80 0.400 0.00 OPEN
761 72 428 6.86 50 0.400 0.00 OPEN
763 218 211 2.62 80 0.400 0.00 OPEN
764 17 31 5.83 80 0.400 0.00 OPEN
765 143 64 1.91 50 0.400 0.00 OPEN
766 81 80 5.26 80 0.400 0.00 OPEN
767 80 82 5.44 50 0.400 0.00 OPEN
768 224 218 3.78 80 0.400 0.00 OPEN
769 360 260 3.83 50 0.400 0.00 OPEN
771 410 213 40.00 50 0.400 0.00 OPEN
772 273 274 1.15 50 0.400 0.00 OPEN
773 274 216 1.11 50 0.400 0.00 OPEN
775 466 527 15.10 250 0.100 0.00 OPEN
776 363 361 11.19 80 0.400 0.00 OPEN
777 1 298 23.83 80 0.400 0.00 OPEN
778 46 130 19.75 50 0.400 0.00 OPEN
779 425 367 7.30 300 0.100 0.00 OPEN
780 353 506 6.38 250 0.100 0.00 OPEN
781 254 227 7.21 50 0.400 0.00 OPEN
784 98 92 2.08 50 0.400 0.00 OPEN
785 179 234 1.94 50 0.400 0.00 OPEN
789 238 113 9.62 50 0.400 0.00 OPEN
790 303 236 1.93 50 0.400 0.00 OPEN
792 484 405 5.16 50 0.400 0.00 OPEN
793 455 179 2.23 50 0.400 0.00 OPEN
794 510 509 8.95 200 0.100 0.00 OPEN
795 296 359 6.17 80 0.400 0.00 OPEN
798 177 479 13.59 80 0.400 0.00 OPEN
799 270 269 3.19 50 0.400 0.00 OPEN
800 263 246 29.26 50 0.400 0.00 OPEN
801 206 248 2.40 50 0.400 0.00 OPEN
803 209 442 9.41 50 0.400 0.00 OPEN
804 525 225 35.27 80 0.400 0.00 OPEN
805 511 533 20.07 200 0.100 0.00 OPEN
806 350 362 3.03 50 0.400 0.00 OPEN
807 291 188 27.01 200 0.100 0.00 OPEN
808 472 267 3.47 80 0.400 0.00 OPEN
809 389 256 12.04 50 0.400 0.00 OPEN
810 16 389 0.81 50 0.400 0.00 OPEN
812 249 498 33.08 50 0.400 0.00 OPEN
815 215 210 46.54 200 0.100 0.00 OPEN
817 531 416 2.49 50 0.400 0.00 OPEN
818 261 431 46.96 50 0.400 0.00 OPEN
820 264 263 3.85 50 0.400 0.00 OPEN
821 252 264 2.87 50 0.400 0.00 OPEN
822 524 252 1.66 50 0.400 0.00 OPEN
823 192 426 19.68 200 0.100 0.00 OPEN
825 366 372 32.32 50 0.400 0.00 OPEN
826 403 459 2.54 50 0.400 0.00 OPEN
827 319 496 2.83 50 0.400 0.00 OPEN
828 268 365 2.76 50 0.400 0.00 OPEN
829 74 270 19.74 50 0.400 0.00 OPEN
830 75 74 13.65 50 0.400 0.00 OPEN
831 383 503 16.60 50 0.400 0.00 OPEN
832 521 103 43.85 50 0.400 0.00 OPEN
833 232 278 20.61 50 0.400 0.00 OPEN
834 113 338 9.29 50 0.400 0.00 OPEN
836 122 273 1.57 50 0.400 0.00 OPEN
837 420 283 39.63 80 0.400 0.00 OPEN
839 220 306 4.60 200 0.100 0.00 OPEN
840 152 186 34.83 50 0.400 0.00 OPEN
841 184 46 3.07 50 0.400 0.00 OPEN
842 91 238 19.49 50 0.400 0.00 OPEN
847 90 214 10.65 50 0.400 0.00 OPEN
849 340 531 52.04 50 0.400 0.00 OPEN
850 216 292 1.31 50 0.400 0.00 OPEN
852 332 429 4.30 50 0.400 0.00 OPEN
853 491 110 34.20 50 0.400 0.00 OPEN
854 323 304 20.64 50 0.400 0.00 OPEN
855 128 300 17.01 50 0.400 0.00 OPEN
856 333 111 1.94 50 0.400 0.00 OPEN
857 304 250 23.61 50 0.400 0.00 OPEN
859 473 468 10.91 80 0.400 0.00 OPEN
860 43 433 13.81 250 0.100 0.00 OPEN
861 311 233 6.64 50 0.400 0.00 OPEN
862 200 51 2.97 80 0.400 0.00 OPEN
863 203 13 3.42 50 0.400 0.00 OPEN
864 228 396 10.83 200 0.100 0.00 OPEN
865 157 257 20.32 200 0.100 0.00 OPEN
866 436 311 12.32 50 0.400 0.00 OPEN
867 357 313 140.70 50 0.400 0.00 OPEN
868 145 305 26.66 50 0.400 0.00 OPEN
870 437 440 44.20 200 0.100 0.00 OPEN
871 335 208 35.73 50 0.400 0.00 OPEN
873 426 25 11.07 200 0.100 0.00 OPEN
874 140 138 10.73 200 0.100 0.00 OPEN
875 438 457 9.07 50 0.400 0.00 OPEN
878 355 524 1.35 50 0.400 0.00 OPEN
879 191 315 7.56 50 0.400 0.00 OPEN
880 369 323 34.18 50 0.400 0.00 OPEN
881 430 117 11.84 50 0.400 0.00 OPEN
882 18 224 3.22 80 0.400 0.00 OPEN
883 396 321 9.06 200 0.100 0.00 OPEN
884 63 96 55.23 200 0.100 0.00 OPEN
886 240 291 39.72 100 0.400 0.00 OPEN
888 330 152 37.41 50 0.400 0.00 OPEN
889 106 326 2.95 50 0.400 0.00 OPEN
890 14 329 5.40 50 0.400 0.00 OPEN
891 301 462 1.67 50 0.400 0.00 OPEN
892 397 369 4.43 80 0.400 0.00 OPEN
893 177 404 12.11 80 0.400 0.00 OPEN
896 515 339 51.74 200 0.100 0.00 OPEN
897 137 141 32.91 200 0.100 0.00 OPEN
899 138 327 11.03 200 0.100 0.00 OPEN
900 414 480 14.79 100 0.400 0.00 OPEN
902 154 529 7.35 50 0.400 0.00 OPEN
905 457 342 2.17 50 0.400 0.00 OPEN
907 424 423 41.67 50 0.400 0.00 OPEN
908 393 377 35.33 250 0.100 0.00 OPEN
912 348 488 37.40 50 0.400 0.00 OPEN
914 103 520 43.61 200 0.100 0.00 OPEN
916 135 464 5.12 50 0.400 0.00 OPEN
918 470 471 9.84 50 0.400 0.00 OPEN
919 117 94 10.34 50 0.400 0.00 OPEN
920 8 149 32.11 50 0.400 0.00 OPEN
921 69 347 24.12 200 0.100 0.00 OPEN
923 446 360 3.75 50 0.400 0.00 OPEN
924 519 350 2.36 50 0.400 0.00 OPEN
925 356 22 9.80 50 0.400 0.00 OPEN
926 22 501 3.33 50 0.400 0.00 OPEN
927 476 466 18.18 250 0.100 0.00 OPEN
928 269 364 2.99 50 0.400 0.00 OPEN
932 398 324 38.88 50 0.400 0.00 OPEN
933 533 65 6.58 200 0.100 0.00 OPEN
934 242 296 8.26 80 0.400 0.00 OPEN
935 288 370 6.59 50 0.400 0.00 OPEN
936 474 125 5.94 50 0.400 0.00 OPEN
937 460 530 25.91 50 0.400 0.00 OPEN
938 250 376 11.71 50 0.400 0.00 OPEN
939 293 48 1.89 50 0.400 0.00 OPEN
940 48 380 1.96 50 0.400 0.00 OPEN
941 400 401 1.66 50 0.400 0.00 OPEN
942 401 381 2.09 50 0.400 0.00 OPEN
943 418 124 4.50 50 0.400 0.00 OPEN
945 118 382 22.14 80 0.400 0.00 OPEN
946 407 398 15.66 50 0.400 0.00 OPEN
947 230 455 2.63 50 0.400 0.00 OPEN
948 47 371 5.40 250 0.100 0.00 OPEN
949 493 388 38.70 50 0.400 0.00 OPEN
950 388 363 6.68 50 0.400 0.00 OPEN
951 523 161 3.66 50 0.400 0.00 OPEN
952 253 422 24.19 80 0.400 0.00 OPEN
953 427 253 23.82 80 0.400 0.00 OPEN
955 199 193 15.37 50 0.400 0.00 OPEN
957 421 424 7.24 50 0.400 0.00 OPEN
958 317 123 9.35 80 0.400 0.00 OPEN
959 64 206 7.25 50 0.400 0.00 OPEN
960 111 297 2.21 50 0.400 0.00 OPEN
962 45 207 13.34 50 0.400 0.00 OPEN
963 380 400 1.95 50 0.400 0.00 OPEN
964 507 528 5.86 250 0.100 0.00 OPEN
965 70 478 15.40 50 0.400 0.00 OPEN
966 147 402 12.95 50 0.400 0.00 OPEN
967 275 67 18.74 50 0.400 0.00 OPEN
968 108 310 61.49 200 0.100 0.00 OPEN
970 522 358 12.11 50 0.400 0.00 OPEN
971 207 328 22.44 50 0.400 0.00 OPEN
972 297 399 22.01 50 0.400 0.00 OPEN
973 445 258 2.03 50 0.400 0.00 OPEN
974 283 284 32.66 50 0.400 0.00 OPEN
978 219 411 13.40 50 0.400 0.00 OPEN
979 508 393 7.28 250 0.100 0.00 OPEN
980 267 168 2.56 80 0.400 0.00 OPEN
981 529 160 9.31 50 0.400 0.00 OPEN
982 368 456 62.71 50 0.400 0.00 OPEN
983 73 419 11.66 80 0.400 0.00 OPEN
984 419 420 35.58 80 0.400 0.00 OPEN
985 448 441 25.53 100 0.400 0.00 OPEN
987 260 212 7.61 50 0.400 0.00 OPEN
988 408 10 29.92 50 0.400 0.00 OPEN
989 88 119 21.33 50 0.400 0.00 OPEN
990 352 16 9.75 50 0.400 0.00 OPEN
991 16 361 34.29 200 0.100 0.00 OPEN
992 509 514 7.51 200 0.100 0.00 OPEN
993 347 511 26.31 200 0.100 0.00 OPEN
995 498 11 21.68 80 0.400 0.00 OPEN
996 187 59 161.29 50 0.400 0.00 OPEN
997 409 71 16.20 200 0.100 0.00 OPEN
998 149 444 10.30 50 0.400 0.00 OPEN
999 85 351 16.02 50 0.400 0.00 OPEN

[TAGS]
LINK 777 PE
LINK 626 PE
LINK 666 PE
LINK 535 PE
LINK 562 PE
LINK 747 PE
LINK 564 PE
LINK 573 PE
LINK 721 PE
LINK 1028 PE
LINK 906 PE
LINK 910 Asbestos-Cement
LINK 956 Asbestos-Cement
LINK 731 Asbestos-Cement
LINK 567 Asbestos-Cement
LINK 722 Asbestos-Cement
LINK 825 Asbestos-Cement
LINK 849 Asbestos-Cement
LINK 988 Asbestos-Cement
LINK 1050 Asbestos-Cement
LINK 817 Asbestos-Cement
LINK 566 Asbestos-Cement
LINK 697 Asbestos-Cement
LINK 1067 PVC
LINK 639 PVC
LINK 586 PVC
LINK 1042 PVC
LINK 976 PVC
LINK 790 PVC
LINK 1053 PVC
LINK 792 PVC
LINK 579 PVC
LINK 848 Concrete
LINK 627 Concrete
LINK 838 Concrete
LINK 847 Concrete
LINK 768 STZ
LINK 882 STZ
LINK 763 STZ
LINK 757 STZ
LINK 583 STZ
LINK 976 STZ
LINK 694 STZ
LINK 862 STZ
LINK 705 STZ
LINK 615 STZ
LINK 737 STZ
LINK 715 STZ
LINK 954 STZ
LINK 537 Concrete
LINK 971 Concrete
LINK 651 Concrete
LINK 977 Concrete
LINK 593 Concrete
LINK 1033 Concrete
LINK 890 Concrete
LINK 914 Concrete
LINK 869 Concrete
LINK 724 Concrete
LINK 1010 Concrete
LINK 997 Concrete
LINK 557 Concrete
LINK 1047 Concrete
LINK 584 Concrete
LINK 832 Concrete
LINK 962 Concrete
LINK 800 GUSS
LINK 728 GUSS
LINK 1072 GUSS
LINK 599 GUSS
LINK 875 GUSS
LINK 552 GUSS
LINK 822 GUSS
LINK 889 GUSS
LINK 821 GUSS
LINK 647 GUSS
LINK 820 GUSS
LINK 878 GUSS
LINK 905 GUSS
LINK 650 GGUSS
LINK 652 GGUSS
LINK 546 GGUSS
LINK 600 GGUSS
LINK 1062 GGUSS
LINK 665 GGUSS
LINK 628 GGUSS
LINK 1075 GGUSS
LINK 682 GGUSS
LINK 699 GGUSS
LINK 575 GGUSS
LINK 982 GGUSS
LINK 1001 PE
LINK 617 PE
LINK 1046 PE
LINK 968 PE
LINK 1065 PE
LINK 718 PE
LINK 748 PE
LINK 587 PE
LINK 695 PE
LINK 753 PE
LINK 725 PE
LINK 635 PE
LINK 1056 GGUSS
LINK 1061 GGUSS
LINK 812 GGUSS
LINK 621 GGUSS
LINK 623 GGUSS
LINK 685 GGUSS
LINK 693 GGUSS
LINK 671 GGUSS
LINK 545 GGUSS
LINK 995 GGUSS
LINK 604 GGUSS
LINK 605 GGUSS
LINK 853 PVC
LINK 1081 PVC
LINK 1021 PVC
LINK 846 PVC
LINK 759 GGUSS
LINK 826 GGUSS
LINK 700 GGUSS
LINK 863 GGUSS
LINK 738 GGUSS
LINK 891 GGUSS
LINK 972 GGUSS
LINK 565 GGUSS
LINK 967 GGUSS
LINK 856 GGUSS
LINK 859 GGUSS
LINK 673 GGUSS
LINK 1027 GGUSS
LINK 601 GGUSS
LINK 1018 GGUSS
LINK 755 GGUSS
LINK 686 GGUSS
LINK 960 GGUSS
LINK 646 GGUSS
LINK 1012 STZ
LINK 785 STZ
LINK 793 STZ
LINK 595 STZ
LINK 649 STZ
LINK 653 STZ
LINK 947 STZ
LINK 1085 STZ
LINK 782 STZ
LINK 550 STZ
LINK 1068 STZ
LINK 1060 STZ
LINK 736 STZ
LINK 834 STZ
LINK 1084 STZ
LINK 842 STZ
LINK 789 STZ
LINK 733 PE
LINK 658 PE
LINK 1024 PE
LINK 547 PE
LINK 659 PE
LINK 632 PE
LINK 796 GUSS
LINK 922 GUSS
LINK 562 GUSS
LINK 620 GUSS
LINK 858 PE
LINK 999 PE
LINK 687 PE
LINK 634 PE
LINK 1019 PE
LINK 840 PE
LINK 872 PE
LINK 656 PE
LINK 696 PE
LINK 900 PE
LINK 901 PE
LINK 814 PE
LINK 888 PE
LINK 551 PVC
LINK 663 PVC
LINK 881 PVC
LINK 920 PVC
LINK 998 PVC
LINK 709 PVC
LINK 739 PVC
LINK 538 PVC
LINK 647 PVC
LINK 642 PVC
LINK 539 PVC
LINK 713 PVC
LINK 919 PVC
LINK 619 STZ
LINK 637 STZ
LINK 807 STZ
LINK 886 STZ
LINK 645 STZ
LINK 732 STZ
LINK 864 STZ
LINK 895 STZ
LINK 918 STZ
LINK 945 STZ
LINK 549 STZ
LINK 541 STZ
LINK 883 STZ
LINK 1009 STZ
LINK 616 STZ
LINK 771 STZ
LINK 710 STZ
LINK 641 STZ
LINK 681 STZ
LINK 1035 STZ
LINK 767 STZ
LINK 1040 STZ
LINK 782 STZ
LINK 872 STZ
LINK 1048 STZ
LINK 1044 STZ
LINK 839 STZ
LINK 774 STZ
LINK 691 STZ
LINK 756 STZ
LINK 766 STZ
LINK 556 STZ
LINK 1045 STZ
LINK 770 STZ
LINK 702 Asbestos-Cement
LINK 929 Asbestos-Cement
LINK 989 Asbestos-Cement
LINK 660 Asbestos-Cement
LINK 574 Asbestos-Cement
LINK 746 Concrete
LINK 659 Concrete
LINK 554 Concrete
LINK 940 Asbestos-Cement
LINK 1008 Asbestos-Cement
LINK 772 Asbestos-Cement
LINK 773 Asbestos-Cement
LINK 942 Asbestos-Cement
LINK 850 Asbestos-Cement
LINK 941 Asbestos-Cement
LINK 661 Asbestos-Cement
LINK 836 Asbestos-Cement
LINK 939 Asbestos-Cement
LINK 963 Asbestos-Cement
LINK 582 Asbestos-Cement
LINK 712 GUSS
LINK 887 GUSS
LINK 958 GUSS
LINK 667 GUSS
LINK 943 GUSS
LINK 802 GUSS
LINK 944 GUSS
LINK 894 GUSS
LINK 1022 GUSS
LINK 602 GUSS
LINK 560 GUSS
LINK 640 GUSS
LINK 848 GUSS
LINK 762 GUSS
LINK 813 GUSS
LINK 611 GUSS
LINK 802 GUSS
LINK 903 GUSS
LINK 690 GUSS
LINK 761 GUSS
LINK 838 GUSS
LINK 1023 GUSS
LINK 703 GUSS
LINK 1006 GUSS
LINK 1016 GUSS
LINK 936 GUSS
LINK 751 GUSS
LINK 716 GUSS
LINK 1064 GUSS
LINK 590 GUSS
LINK 607 GUSS
LINK 669 Concrete
LINK 633 Concrete
LINK 855 Concrete
LINK 783 Concrete
LINK 668 Concrete
LINK 745 Concrete
LINK 536 Concrete
LINK 672 Concrete
LINK 764 Concrete
LINK 597 Concrete
LINK 563 Concrete
LINK 624 Concrete
LINK 622 Concrete
LINK 803 Concrete
LINK 797 Concrete
LINK 675 Concrete
LINK 558 Concrete
LINK 1076 Concrete
LINK 684 Concrete
LINK 540 Concrete
LINK 720 Concrete
LINK 877 GUSS
LINK 742 GUSS
LINK 841 GUSS
LINK 714 GUSS
LINK 778 GUSS
LINK 754 GUSS
LINK 706 GUSS
LINK 729 GUSS
LINK 760 GUSS
LINK 670 Asbestos-Cement
LINK 1066 PE
LINK 916 PE
LINK 819 PE
LINK 925 PE
LINK 716 PE
LINK 926 PE
LINK 1034 PVC
LINK 1017 Asbestos-Cement
LINK 626 Asbestos-Cement
LINK 897 Asbestos-Cement
LINK 580 Asbestos-Cement
LINK 543 Asbestos-Cement
LINK 874 GUSS
LINK 1017 GUSS
LINK 835 GUSS
LINK 899 GUSS
LINK 904 GUSS
LINK 743 GUSS
LINK 955 GUSS
LINK 791 GUSS
LINK 909 GUSS
LINK 904 GUSS
LINK 786 GUSS
LINK 959 GUSS
LINK 827 GUSS
LINK 951 GUSS
LINK 765 GUSS
LINK 843 GUSS
LINK 680 GUSS
LINK 801 GUSS
LINK 994 GUSS
LINK 1059 GUSS
LINK 727 STZ
LINK 868 STZ
LINK 610 Asbestos-Cement
LINK 640 Asbestos-Cement
LINK 648 Asbestos-Cement
LINK 966 Asbestos-Cement
LINK 683 Asbestos-Cement
LINK 769 GGUSS
LINK 1004 GGUSS
LINK 1003 GGUSS
LINK 894 GGUSS
LINK 923 GGUSS
LINK 987 GGUSS
LINK 676 Concrete
LINK 734 Concrete
LINK 689 Concrete
LINK 797 Concrete
LINK 1086_a Concrete
LINK 1086_b Concrete
LINK 845 Asbestos-Cement
LINK 930 Asbestos-Cement
LINK 915 Asbestos-Cement
LINK 554 STZ
LINK 631 STZ
LINK 902 STZ
LINK 1043 STZ
LINK 603 STZ
LINK 981 STZ
LINK 612 PVC
LINK 614 PVC
LINK 969 PVC
LINK 700 PVC
LINK 701 PVC
LINK 865 PVC
LINK 655 PE
LINK 816 GUSS
LINK 1055 GUSS
LINK 1054 GUSS
LINK 990 GUSS
LINK 991 GUSS
LINK 813 GUSS
LINK 858 GUSS
LINK 949 GUSS
LINK 1007 GUSS
LINK 950 GUSS
LINK 544 GUSS
LINK 776 GUSS
LINK 809 GUSS
LINK 606 GUSS
LINK 810 GUSS
LINK 553 GUSS
LINK 643 Asbestos-Cement
LINK 740 Asbestos-Cement
LINK 682 Asbestos-Cement
LINK 654 Asbestos-Cement
LINK 715 Asbestos-Cement
LINK 857 PE
LINK 980 PE
LINK 854 PE
LINK 880 PE
LINK 876 PE
LINK 892 PE
LINK 1002 PE
LINK 808 PE
LINK 678 PE
LINK 938 PE
LINK 750 Asbestos-Cement
LINK 922 Asbestos-Cement
LINK 704 Asbestos-Cement
LINK 1079 PE
LINK 608 PE
LINK 815 PE
LINK 829 PE
LINK 609 PE
LINK 830 PE
LINK 799 PE
LINK 928 PE
LINK 591 PE
LINK 1010 PE
LINK 708 PE
LINK 594 PE
LINK 961 PE
LINK 1005 GGUSS
LINK 629 GGUSS
LINK 1021 GGUSS
LINK 917 PE
LINK 893 PE
LINK 833 PE
LINK 712 PE
LINK 657 PE
LINK 735 PE
LINK 569 PE
LINK 1039 PE
LINK 1020 PE
LINK 570 PE
LINK 798 PE
LINK 636 PE
LINK 598 PE
LINK 651 Concrete
LINK 572 Concrete
LINK 571 Concrete
LINK 1001 Concrete
LINK 956 PE
LINK 752 PE
LINK 747 PE
LINK 844 Concrete
LINK 898 Concrete
LINK 996 Concrete
LINK 538 Concrete
LINK 879 PVC
LINK 845 PVC
LINK 1000 PVC
LINK 741 PVC