[TITLE]


[JUNCTIONS]
;ID              	Elev        	Demand      	Pattern         
 1               	897.5       	0.25        	                	;
 10              	897.5       	0.2         	                	;
 100             	898.5       	0           	                	;
 101             	922.5       	0           	                	;
 102             	903.5       	0.2         	                	;
 103             	893.5       	0.5         	                	;
 104             	930.5       	0.05        	                	;
 105             	930.5       	0.05        	                	;
 106             	930.5       	0.05        	                	;
 107             	896.5       	0.6         	                	;
 108             	896.5       	0.65        	                	;
 109             	905.5       	0.3         	                	;
 11              	954.5       	0.3         	                	;
 110             	908.5       	0.65        	                	;
 111             	895.5       	0           	                	;
 112             	915.5       	0.05        	                	;
 113             	918.5       	0.05        	                	;
 114             	892.5       	0.3         	                	;
 115             	901.5       	0.05        	                	;
 116             	914.5       	0.15        	                	;
 117             	934.5       	0.15        	                	;
 118             	920.5       	0.05        	                	;
 119             	932.5       	0.2         	                	;
 12              	915.5       	0.05        	                	;
 120             	893.5       	1.75        	                	;
 121             	892.5       	0.3         	                	;
 122             	893.5       	0           	                	;
 123             	934.5       	0.05        	                	;
 124             	923.5       	0           	                	;
 125             	922.5       	0           	                	;
 126             	892.5       	0.15        	                	;
 127             	951.5       	0.85        	                	;
 128             	892.5       	0.6         	                	;
 129             	892.5       	0.45        	                	;
 13              	895.5       	0.05        	                	;
 130             	891.5       	1.3         	                	;
 131             	916.5       	0.8         	                	;
 132             	893.5       	0.4         	                	;
 133             	894.5       	0           	                	;
 134             	895.5       	0.05        	                	;
 135             	923.5       	0.05        	                	;
 136             	911.5       	0.5         	                	;
 137             	899.5       	0           	                	;
 138             	894.5       	0.2         	                	;
 139             	964.5       	0.2         	                	;
 14              	894.5       	0           	                	;
 140             	895.5       	0.1         	                	;
 141             	895.5       	0.1         	                	;
 142             	894.5       	0.3         	                	;
 143             	944.5       	0           	                	;
 144             	892.5       	0.8         	                	;
 145             	906.5       	0.2         	                	;
 146             	922.5       	0.1         	                	;
 147             	918.5       	0.25        	                	;
 148             	922.5       	0           	                	;
 149             	934.5       	0.2         	                	;
 15              	922.5       	0.05        	                	;
 150             	958.5       	0.15        	                	;
 151             	944.5       	0.15        	                	;
 152             	912.5       	0.2         	                	;
 153             	906.5       	0.2         	                	;
 154             	893.5       	0.2         	                	;
 155             	944.5       	0.35        	                	;
 156             	894.5       	0.25        	                	;
 157             	894.5       	0           	                	;
 158             	892.5       	0.25        	                	;
 159             	918.5       	0           	                	;
 16              	919.5       	0           	                	;
 160             	893.5       	0.65        	                	;
 161             	944.5       	0           	                	;
 162             	891.5       	0.05        	                	;
 163             	894.5       	0.15        	                	;
 164             	928.5       	0.15        	                	;
 165             	903.5       	0.15        	                	;
 166             	905.5       	0.3         	                	;
 167             	905.5       	0.2         	                	;
 168             	896.5       	0           	                	;
 169             	923.5       	0.05        	                	;
 17              	893.5       	0           	                	;
 170             	893.5       	0.85        	                	;
 171             	903.5       	0.1         	                	;
 172             	899.5       	0.5         	                	;
 173             	897.5       	0           	                	;
 174             	892.5       	0.4         	                	;
 175             	903.5       	0.55        	                	;
 176             	894.5       	0.2         	                	;
 177             	934.5       	0.1         	                	;
 178             	895.5       	0           	                	;
 179             	918.5       	0           	                	;
 18              	903.5       	0.15        	                	;
 180             	899.5       	0.1         	                	;
 181             	898.5       	0.05        	                	;
 182             	918.5       	0           	                	;
 183             	899.5       	0.15        	                	;
 184             	893.5       	0.05        	                	;
 185             	897.5       	0.35        	                	;
 186             	911.5       	0.15        	                	;
 187             	927.5       	0.7         	                	;
 188             	916.5       	0.25        	                	;
 189             	898.5       	0.05        	                	;
 19              	893.5       	0           	                	;
 190             	895.5       	0.05        	                	;
 191             	904.5       	0           	                	;
 192             	926.5       	0.25        	                	;
 193             	893.5       	0.15        	                	;
 194             	892.5       	0.15        	                	;
 195             	893.5       	0.05        	                	;
 196             	958.5       	0.05        	                	;
 197             	896.5       	0.1         	                	;
 198             	897.5       	0.7         	                	;
 199             	893.5       	0.45        	                	;
 2               	898.5       	0.35        	                	;
 20              	893.5       	0.5         	                	;
 200             	898.5       	0           	                	;
 201             	960.5       	0.05        	                	;
 202             	910.5       	0.1         	                	;
 203             	895.5       	0.05        	                	;
 204             	905.5       	0.15        	                	;
 205             	908.5       	1           	                	;
 206             	937.5       	0           	                	;
 207             	894.5       	0.25        	                	;
 208             	918.5       	0.75        	                	;
 209             	934.5       	0.1         	                	;
 21              	892.5       	0.25        	                	;
 210             	891.5       	0.35        	                	;
 211             	901.5       	0.25        	                	;
 212             	922.5       	0.1         	                	;
 213             	918.5       	0.5         	                	;
 214             	922.5       	0.05        	                	;
 215             	892.5       	0.45        	                	;
 216             	893.5       	0           	                	;
 217             	928.5       	0.15        	                	;
 218             	901.5       	0           	                	;
 219             	895.5       	0.15        	                	;
 22              	921.5       	0           	                	;
 220             	918.5       	0           	                	;
 221             	900.5       	0.1         	                	;
 222             	898.5       	0.1         	                	;
 223             	919.5       	0.1         	                	;
 224             	903.5       	0.15        	                	;
 225             	922.5       	0.15        	                	;
 226             	893.5       	0.25        	                	;
 227             	909.5       	0.25        	                	;
 228             	919.5       	0           	                	;
 229             	918.5       	0           	                	;
 23              	932.5       	0.3         	                	;
 230             	918.5       	0           	                	;
 231             	894.5       	0.7         	                	;
 232             	936.5       	0.25        	                	;
 233             	923.5       	0           	                	;
 234             	918.5       	0           	                	;
 235             	893.5       	0.2         	                	;
 236             	898.5       	0.05        	                	;
 237             	926.5       	0           	                	;
 238             	918.5       	0.05        	                	;
 239             	898.5       	0.2         	                	;
 24              	960.5       	0.1         	                	;
 240             	915.5       	0.7         	                	;
 241             	892.5       	0.15        	                	;
 242             	922.5       	0.15        	                	;
 243             	919.5       	0.05        	                	;
 244             	893.5       	0.55        	                	;
 245             	928.5       	0.8         	                	;
 246             	936.5       	0.55        	                	;
 247             	895.5       	0.05        	                	;
 248             	937.5       	0           	                	;
 249             	957.5       	0.85        	                	;
 25              	934.5       	0.35        	                	;
 250             	893.5       	0.2         	                	;
 251             	897.5       	0.1         	                	;
 252             	934.5       	0.05        	                	;
 253             	910.5       	0.2         	                	;
 254             	910.5       	0.05        	                	;
 255             	923.5       	0.05        	                	;
 256             	919.5       	0.15        	                	;
 257             	894.5       	0.1         	                	;
 258             	923.5       	0           	                	;
 259             	893.5       	0           	                	;
 26              	903.5       	0           	                	;
 260             	922.5       	0           	                	;
 261             	894.5       	0.7         	                	;
 262             	921.5       	0.05        	                	;
 263             	936.5       	0.05        	                	;
 264             	936.5       	0           	                	;
 265             	893.5       	0           	                	;
 266             	898.5       	0           	                	;
 267             	896.5       	0.2         	                	;
 268             	893.5       	0.05        	                	;
 269             	892.5       	0           	                	;
 27              	908.5       	0.1         	                	;
 270             	892.5       	0           	                	;
 271             	923.5       	0           	                	;
 272             	894.5       	0.9         	                	;
 273             	893.5       	0           	                	;
 274             	893.5       	0.05        	                	;
 275             	893.5       	0.25        	                	;
 276             	939.5       	0.35        	                	;
 277             	893.5       	0           	                	;
 278             	947.5       	0.15        	                	;
 279             	934.5       	0.1         	                	;
 28              	901.5       	0.1         	                	;
 280             	893.5       	0.05        	                	;
 281             	892.5       	0.1         	                	;
 282             	901.5       	0.1         	                	;
 283             	918.5       	0.6         	                	;
 284             	920.5       	0.5         	                	;
 285             	892.5       	0.15        	                	;
 286             	911.5       	0.35        	                	;
 287             	934.5       	0.1         	                	;
 288             	908.5       	0.2         	                	;
 289             	923.5       	0.1         	                	;
 29              	960.5       	0.1         	                	;
 290             	910.5       	0.6         	                	;
 291             	916.5       	0.35        	                	;
 292             	893.5       	0.05        	                	;
 293             	894.5       	0           	                	;
 294             	910.5       	0           	                	;
 295             	934.5       	0.25        	                	;
 296             	922.5       	0.15        	                	;
 297             	895.5       	0.2         	                	;
 298             	897.5       	0.1         	                	;
 299             	895.5       	0.2         	                	;
 3               	897.5       	0.1         	                	;
 30              	927.5       	0.15        	                	;
 300             	892.5       	0.3         	                	;
 301             	895.5       	0.05        	                	;
 302             	898.5       	0.05        	                	;
 303             	898.5       	0.05        	                	;
 304             	893.5       	0.2         	                	;
 305             	911.5       	0.35        	                	;
 306             	918.5       	0.05        	                	;
 307             	922.5       	0           	                	;
 308             	906.5       	0.05        	                	;
 309             	944.5       	0.05        	                	;
 31              	893.5       	0.1         	                	;
 310             	896.5       	0.3         	                	;
 311             	925.5       	0.05        	                	;
 312             	943.5       	0           	                	;
 313             	943.5       	0.1         	                	;
 314             	923.5       	0.05        	                	;
 315             	904.5       	0.15        	                	;
 316             	904.5       	0.55        	                	;
 317             	934.5       	0.1         	                	;
 318             	921.5       	0           	                	;
 319             	937.5       	0           	                	;
 32              	905.5       	0.1         	                	;
 320             	912.5       	0.3         	                	;
 321             	919.5       	0           	                	;
 322             	903.5       	0.05        	                	;
 323             	894.5       	0.3         	                	;
 324             	926.5       	0.2         	                	;
 325             	899.5       	0           	                	;
 326             	930.5       	0.05        	                	;
 327             	894.5       	0.15        	                	;
 328             	894.5       	0.4         	                	;
 329             	894.5       	0           	                	;
 33              	905.5       	0.05        	                	;
 330             	911.5       	0.6         	                	;
 331             	893.5       	0.05        	                	;
 332             	910.5       	0.15        	                	;
 333             	895.5       	0.1         	                	;
 334             	893.5       	0           	                	;
 335             	920.5       	0.1         	                	;
 336             	923.5       	0           	                	;
 337             	921.5       	0.35        	                	;
 338             	918.5       	0.1         	                	;
 339             	929.5       	0.2         	                	;
 34              	899.5       	0.25        	                	;
 340             	899.5       	0.3         	                	;
 341             	922.5       	0.1         	                	;
 342             	934.5       	0           	                	;
 343             	893.5       	0.2         	                	;
 344             	893.5       	0.1         	                	;
 345             	899.5       	0.1         	                	;
 346             	943.5       	0.05        	                	;
 347             	923.5       	0.45        	                	;
 348             	894.5       	0.15        	                	;
 349             	909.5       	0.6         	                	;
 35              	899.5       	0.35        	                	;
 350             	910.5       	0.1         	                	;
 351             	911.5       	0.25        	                	;
 352             	919.5       	0           	                	;
 353             	944.5       	0.1         	                	;
 354             	918.5       	0           	                	;
 355             	934.5       	0.05        	                	;
 356             	921.5       	0           	                	;
 357             	950.5       	0.7         	                	;
 358             	893.5       	0.2         	                	;
 359             	922.5       	0.15        	                	;
 36              	934.5       	0           	                	;
 360             	922.5       	0           	                	;
 361             	914.5       	0.15        	                	;
 362             	910.5       	0.15        	                	;
 363             	914.5       	0           	                	;
 364             	892.5       	0           	                	;
 365             	893.5       	0.1         	                	;
 366             	906.5       	0.3         	                	;
 367             	947.5       	0.2         	                	;
 368             	899.5       	0.1         	                	;
 369             	894.5       	0.25        	                	;
 37              	944.5       	0           	                	;
 370             	908.5       	0.15        	                	;
 371             	939.5       	0.05        	                	;
 372             	906.5       	0.3         	                	;
 373             	921.5       	0.05        	                	;
 374             	926.5       	0.55        	                	;
 375             	905.5       	0.2         	                	;
 376             	893.5       	0.6         	                	;
 377             	934.5       	0.15        	                	;
 378             	916.5       	0.05        	                	;
 379             	911.5       	0.1         	                	;
 38              	943.5       	0.25        	                	;
 380             	894.5       	0           	                	;
 381             	894.5       	0           	                	;
 382             	920.5       	0.1         	                	;
 383             	892.5       	0.05        	                	;
 384             	899.5       	0.1         	                	;
 385             	911.5       	0.65        	                	;
 386             	968.5       	1.45        	                	;
 387             	916.5       	0.2         	                	;
 388             	914.5       	0           	                	;
 389             	919.5       	0           	                	;
 39              	896.5       	0.1         	                	;
 390             	893.5       	0           	                	;
 391             	894.5       	0.1         	                	;
 392             	898.5       	0.3         	                	;
 393             	939.5       	0.05        	                	;
 394             	907.5       	1.5         	                	;
 395             	909.5       	0.1         	                	;
 396             	919.5       	0.1         	                	;
 397             	896.5       	0.05        	                	;
 398             	923.5       	0.15        	                	;
 399             	894.5       	0.4         	                	;
 4               	930.5       	0.2         	                	;
 40              	939.5       	0           	                	;
 400             	894.5       	0           	                	;
 401             	894.5       	0           	                	;
 402             	918.5       	0.35        	                	;
 403             	894.5       	0.05        	                	;
 404             	934.5       	0           	                	;
 405             	898.5       	0.8         	                	;
 406             	897.5       	0.1         	                	;
 407             	923.5       	0.05        	                	;
 408             	897.5       	0.1         	                	;
 409             	895.5       	0.15        	                	;
 41              	897.5       	0.65        	                	;
 410             	921.5       	0.4         	                	;
 411             	895.5       	0.1         	                	;
 412             	899.5       	0.45        	                	;
 413             	893.5       	0.05        	                	;
 414             	913.5       	0.25        	                	;
 415             	905.5       	0.4         	                	;
 416             	897.5       	0           	                	;
 417             	923.5       	0.05        	                	;
 418             	923.5       	0           	                	;
 419             	921.5       	0.2         	                	;
 42              	901.5       	0           	                	;
 420             	922.5       	0.2         	                	;
 421             	910.5       	0.1         	                	;
 422             	910.5       	0.35        	                	;
 423             	911.5       	0.2         	                	;
 424             	910.5       	0.35        	                	;
 425             	947.5       	0           	                	;
 426             	934.5       	0.25        	                	;
 427             	910.5       	0.15        	                	;
 428             	922.5       	0           	                	;
 429             	910.5       	0.05        	                	;
 43              	947.5       	0.1         	                	;
 430             	934.5       	0.25        	                	;
 431             	893.5       	0.15        	                	;
 432             	918.5       	0.1         	                	;
 433             	944.5       	0.15        	                	;
 434             	954.5       	0.15        	                	;
 435             	900.5       	0.05        	                	;
 436             	922.5       	0           	                	;
 437             	911.5       	0.3         	                	;
 438             	934.5       	0.05        	                	;
 439             	915.5       	0           	                	;
 44              	923.5       	0           	                	;
 440             	909.5       	0.1         	                	;
 441             	910.5       	0.45        	                	;
 442             	934.5       	0.35        	                	;
 443             	944.5       	0           	                	;
 444             	934.5       	0.2         	                	;
 445             	923.5       	0           	                	;
 446             	922.5       	0           	                	;
 447             	944.5       	0.05        	                	;
 448             	911.5       	0.45        	                	;
 449             	919.5       	0.15        	                	;
 45              	894.5       	0.05        	                	;
 450             	915.5       	0.35        	                	;
 451             	892.5       	0.45        	                	;
 452             	916.5       	0.05        	                	;
 453             	916.5       	0.1         	                	;
 454             	905.5       	0.45        	                	;
 455             	918.5       	0.05        	                	;
 456             	896.5       	0.3         	                	;
 457             	934.5       	0.05        	                	;
 458             	921.5       	0           	                	;
 459             	894.5       	0           	                	;
 46              	891.5       	0.05        	                	;
 460             	932.5       	0.45        	                	;
 461             	910.5       	0.25        	                	;
 462             	895.5       	0.05        	                	;
 463             	901.5       	0.25        	                	;
 464             	923.5       	0.1         	                	;
 465             	903.5       	0.6         	                	;
 466             	948.5       	0.2         	                	;
 467             	891.5       	0.05        	                	;
 468             	892.5       	0.25        	                	;
 469             	923.5       	0.1         	                	;
 47              	939.5       	0.15        	                	;
 470             	910.5       	0.1         	                	;
 471             	910.5       	0.7         	                	;
 472             	896.5       	0.05        	                	;
 473             	892.5       	0.15        	                	;
 474             	923.5       	0           	                	;
 475             	923.5       	0           	                	;
 476             	940.5       	0.1         	                	;
 477             	893.5       	0.1         	                	;
 478             	926.5       	0.6         	                	;
 479             	934.5       	0.1         	                	;
 48              	894.5       	0           	                	;
 480             	913.5       	0.45        	                	;
 481             	908.5       	0.15        	                	;
 482             	923.5       	0           	                	;
 483             	919.5       	0.05        	                	;
 484             	898.5       	0           	                	;
 485             	894.5       	0.2         	                	;
 486             	892.5       	0           	                	;
 487             	917.5       	0.2         	                	;
 488             	894.5       	0.4         	                	;
 489             	893.5       	0.1         	                	;
 49              	899.5       	0.75        	                	;
 490             	891.5       	0.65        	                	;
 491             	909.5       	0.25        	                	;
 492             	910.5       	0.1         	                	;
 493             	914.5       	0.2         	                	;
 494             	909.5       	0.5         	                	;
 495             	896.5       	0.15        	                	;
 496             	937.5       	0.1         	                	;
 497             	892.5       	0.05        	                	;
 498             	954.5       	0.45        	                	;
 499             	892.5       	0.5         	                	;
 5               	917.5       	0.35        	                	;
 50              	905.5       	0           	                	;
 500             	896.5       	0.1         	                	;
 501             	921.5       	0.05        	                	;
 502             	915.5       	0           	                	;
 503             	892.5       	0.05        	                	;
 504             	915.5       	0.3         	                	;
 505             	944.5       	0.05        	                	;
 506             	944.5       	0           	                	;
 507             	939.5       	0.05        	                	;
 508             	939.5       	0.05        	                	;
 509             	892.5       	0.05        	                	;
 51              	898.5       	0           	                	;
 510             	892.5       	0           	                	;
 511             	923.5       	0.25        	                	;
 512             	921.5       	0.3         	                	;
 513             	893.5       	0.35        	                	;
 514             	892.5       	0.25        	                	;
 515             	933.5       	0.1         	                	;
 516             	893.5       	0.15        	                	;
 517             	944.5       	0           	                	;
 518             	894.5       	0.2         	                	;
 519             	910.5       	0           	                	;